# 
@<TRIPOS>MOLECULE
1UN
 85 88 0 0 0
SMALL
GASTEIGER

@<TRIPOS>ATOM
      1 C           2.6450   -4.1530   16.3150 C.3     1  LIG1       -0.0253
      2 C           3.4610   -5.4530   16.5930 C.3     1  LIG1       -0.0352
      3 C           2.6850   -6.6860   16.1660 C.3     1  LIG1       -0.0499
      4 C           2.2720   -6.5480   14.7110 C.3     1  LIG1       -0.0528
      5 C           1.4340   -5.2770   14.5060 C.3     1  LIG1       -0.0527
      6 C           2.2930   -4.0120   14.8260 C.3     1  LIG1       -0.0488
      7 N           4.7380   -2.8460   16.0410 N.3     1  LIG1       -0.2887
      8 C           5.5780   -4.0310   16.3220 C.3     1  LIG1        0.0876
      9 C           4.8280   -5.3230   15.8890 C.3     1  LIG1       -0.0257
     10 C           3.4830   -2.9590   16.8210 C.3     1  LIG1        0.0028
     11 C           6.8480   -3.9550   15.5210 C.2     1  LIG1        0.2307
     12 N           7.8860   -4.4650   16.2330 N.am    1  LIG1       -0.3093
     13 C           9.2890   -4.5340   15.7600 C.3     1  LIG1        0.0262
     14 C           9.8340   -3.1580   15.4200 C.3     1  LIG1       -0.0442
     15 C           9.3340   -5.4090   14.4700 C.3     1  LIG1       -0.0442
     16 C          10.1210   -5.1180   16.9370 C.3     1  LIG1       -0.0442
     17 O           6.8300   -3.5380   14.3450 O.2     1  LIG1       -0.2741
     18 C           5.3380   -1.5960   16.5180 C.3     1  LIG1        0.0274
     19 C           4.8200   -0.4460   15.6410 C.3     1  LIG1        0.0869
     20 C           5.5120   -0.3020   14.2830 C.3     1  LIG1        0.0598
     21 O           5.0320    0.7290   16.4330 O.3     1  LIG1       -0.3887
     22 N           4.7580    0.7430   13.6060 N.am    1  LIG1       -0.3052
     23 C           6.9320    0.1830   14.3100 C.3     1  LIG1        0.0192
     24 C           3.8790    0.3930   12.6450 C.2     1  LIG1        0.2448
     25 O           3.7100   -0.7870   12.3060 O.2     1  LIG1       -0.2702
     26 C           3.1980    1.4880   11.9920 C.ar    1  LIG1        0.0431
     27 C           3.9390    2.5960   11.5220 C.ar    1  LIG1       -0.0492
     28 C           3.3240    3.6870   10.9180 C.ar    1  LIG1       -0.0576
     29 C           1.9510    3.6590   10.7530 C.ar    1  LIG1       -0.0199
     30 C           1.2060    2.5700   11.2290 C.ar    1  LIG1        0.1205
     31 C           1.8060    1.4600   11.8290 C.ar    1  LIG1        0.0030
     32 O          -0.1640    2.6190   11.2010 O.3     1  LIG1       -0.5065
     33 C           0.9350    0.3430   12.3340 C.3     1  LIG1       -0.0355
     34 S           7.7470   -0.2420   12.7580 S.3     1  LIG1       -0.1233
     35 C           7.7040    1.2030   11.8200 C.ar    1  LIG1        0.0079
     36 C           7.9680    1.0620   10.4640 C.ar    1  LIG1       -0.0483
     37 C           7.9720    2.2040    9.6860 C.ar    1  LIG1       -0.0607
     38 C           7.7140    3.4510   10.2640 C.ar    1  LIG1       -0.0617
     39 C           7.4430    3.5800   11.6300 C.ar    1  LIG1       -0.0607
     40 C           7.4360    2.4280   12.4120 C.ar    1  LIG1       -0.0483
     41 H           1.6700   -4.1890   16.8540 H       1  LIG1        0.0316
     42 H           3.6380   -5.5790   17.6860 H       1  LIG1        0.0304
     43 H           3.2520   -7.6260   16.3550 H       1  LIG1        0.0268
     44 H           1.8140   -6.8870   16.8330 H       1  LIG1        0.0268
     45 H           3.1510   -6.5790   14.0260 H       1  LIG1        0.0265
     46 H           1.7420   -7.4570   14.3430 H       1  LIG1        0.0265
     47 H           0.9870   -5.2310   13.4850 H       1  LIG1        0.0265
     48 H           0.4880   -5.3000   15.0960 H       1  LIG1        0.0265
     49 H           1.7980   -3.0470   14.5640 H       1  LIG1        0.0268
     50 H           3.1770   -3.8810   14.1590 H       1  LIG1        0.0268
     51 H           5.8010   -4.0530   17.4140 H       1  LIG1        0.0559
     52 H           5.4550   -6.2300   16.0490 H       1  LIG1        0.0288
     53 H           4.7210   -5.3780   14.7800 H       1  LIG1        0.0288
     54 H           2.9000   -2.0080   16.8120 H       1  LIG1        0.0430
     55 H           3.6780   -3.0220   17.9160 H       1  LIG1        0.0430
     56 H           7.7200   -4.9330   17.0750 H       1  LIG1        0.1492
     57 H          10.8890   -3.2090   15.0640 H       1  LIG1        0.0250
     58 H           9.1810   -2.6320   14.6840 H       1  LIG1        0.0250
     59 H           9.7280   -2.4540   16.2780 H       1  LIG1        0.0250
     60 H          10.3890   -5.4600   14.1140 H       1  LIG1        0.0250
     61 H           8.8830   -6.4170   14.6210 H       1  LIG1        0.0250
     62 H           8.6340   -5.0450   13.6810 H       1  LIG1        0.0250
     63 H          11.1760   -5.1690   16.5810 H       1  LIG1        0.0250
     64 H          10.0020   -4.5470   17.8870 H       1  LIG1        0.0250
     65 H           9.7320   -6.0930   17.3110 H       1  LIG1        0.0250
     66 H           5.1580   -1.4210   17.6040 H       1  LIG1        0.0453
     67 H           6.4510   -1.6400   16.5530 H       1  LIG1        0.0453
     68 H           3.7540   -0.6340   15.3720 H       1  LIG1        0.0625
     69 H           5.5370   -1.3120   13.8130 H       1  LIG1        0.0532
     70 H           5.9740    0.7720   16.5370 H       1  LIG1        0.2099
     71 H           4.8790    1.6810   13.8670 H       1  LIG1        0.1494
     72 H           6.9990    1.2720   14.5350 H       1  LIG1        0.0399
     73 H           7.4900   -0.1990   15.1960 H       1  LIG1        0.0399
     74 H           5.0360    2.6090   11.6300 H       1  LIG1        0.0625
     75 H           3.9120    4.5550   10.5770 H       1  LIG1        0.0619
     76 H           1.4520    4.5010   10.2440 H       1  LIG1        0.0654
     77 H          -0.4380    3.3740   10.6940 H       1  LIG1        0.2921
     78 H          -0.1720    0.3200   12.2040 H       1  LIG1        0.0279
     79 H           1.3360   -0.6070   11.9100 H       1  LIG1        0.0279
     80 H           1.1420    0.2280   13.4230 H       1  LIG1        0.0279
     81 H           8.1680    0.0730   10.0180 H       1  LIG1        0.0629
     82 H           8.1800    2.1200    8.6060 H       1  LIG1        0.0618
     83 H           7.7240    4.3520    9.6280 H       1  LIG1        0.0618
     84 H           7.2390    4.5660   12.0790 H       1  LIG1        0.0618
     85 H           7.2190    2.4850   13.4920 H       1  LIG1        0.0629
@<TRIPOS>BOND
     1     1     2    1
     2     1     6    1
     3     1    10    1
     4     1    41    1
     5     2     3    1
     6     2     9    1
     7     2    42    1
     8     3     4    1
     9     3    43    1
    10     3    44    1
    11     4     5    1
    12     4    45    1
    13     4    46    1
    14     5     6    1
    15     5    47    1
    16     5    48    1
    17     6    49    1
    18     6    50    1
    19     7     8    1
    20     7    10    1
    21     7    18    1
    22     8     9    1
    23     8    11    1
    24     8    51    1
    25     9    52    1
    26     9    53    1
    27    10    54    1
    28    10    55    1
    29    11    12   am
    30    11    17    2
    31    12    13    1
    32    12    56    1
    33    13    14    1
    34    13    15    1
    35    13    16    1
    36    14    57    1
    37    14    58    1
    38    14    59    1
    39    15    60    1
    40    15    61    1
    41    15    62    1
    42    16    63    1
    43    16    64    1
    44    16    65    1
    45    18    19    1
    46    18    66    1
    47    18    67    1
    48    19    20    1
    49    19    21    1
    50    19    68    1
    51    20    22    1
    52    20    23    1
    53    20    69    1
    54    21    70    1
    55    22    24   am
    56    22    71    1
    57    23    34    1
    58    23    72    1
    59    23    73    1
    60    24    25    2
    61    24    26    1
    62    26    27   ar
    63    26    31   ar
    64    27    28   ar
    65    27    74    1
    66    28    29   ar
    67    28    75    1
    68    29    30   ar
    69    29    76    1
    70    30    31   ar
    71    30    32    1
    72    31    33    1
    73    32    77    1
    74    33    78    1
    75    33    79    1
    76    33    80    1
    77    34    35    1
    78    35    36   ar
    79    35    40   ar
    80    36    37   ar
    81    36    81    1
    82    37    38   ar
    83    37    82    1
    84    38    39   ar
    85    38    83    1
    86    39    40   ar
    87    39    84    1
    88    40    85    1
