@<TRIPOS>MOLECULE
1UN
   85    88     1     0     0
SMALL
bcc


@<TRIPOS>ATOM
      1 C            2.6450    -4.1530    16.3150 c3         1 LIG      -0.052700
      2 C1           3.4610    -5.4530    16.5930 c3         1 LIG      -0.057700
      3 C2           2.6850    -6.6860    16.1660 c3         1 LIG      -0.070400
      4 C3           2.2720    -6.5480    14.7110 c3         1 LIG      -0.077400
      5 C4           1.4340    -5.2770    14.5060 c3         1 LIG      -0.076400
      6 C5           2.2930    -4.0120    14.8260 c3         1 LIG      -0.079400
      7 N            4.7380    -2.8460    16.0410 n3         1 LIG      -0.718600
      8 C6           5.5780    -4.0310    16.3220 c3         1 LIG       0.126500
      9 C7           4.8280    -5.3230    15.8890 c3         1 LIG      -0.072400
     10 C8           3.4830    -2.9590    16.8210 c3         1 LIG       0.159800
     11 C9           6.8480    -3.9550    15.5210 c          1 LIG       0.661100
     12 N1           7.8860    -4.4650    16.2330 n          1 LIG      -0.569900
     13 C10          9.2890    -4.5340    15.7600 c3         1 LIG       0.124400
     14 C11          9.8340    -3.1580    15.4200 c3         1 LIG      -0.108100
     15 C12          9.3340    -5.4090    14.4700 c3         1 LIG      -0.108100
     16 C13         10.1210    -5.1180    16.9370 c3         1 LIG      -0.108100
     17 O            6.8300    -3.5380    14.3450 o          1 LIG      -0.612100
     18 C14          5.3380    -1.5960    16.5180 c3         1 LIG       0.139800
     19 C15          4.8200    -0.4460    15.6410 c3         1 LIG       0.116100
     20 C16          5.5120    -0.3020    14.2830 c3         1 LIG       0.082700
     21 O1           5.0320     0.7290    16.4330 oh         1 LIG      -0.597800
     22 N2           4.7580     0.7430    13.6060 n          1 LIG      -0.554900
     23 C17          6.9320     0.1830    14.3100 c3         1 LIG      -0.070300
     24 C18          3.8790     0.3930    12.6450 c          1 LIG       0.678700
     25 O2           3.7100    -0.7870    12.3060 o          1 LIG      -0.615100
     26 C19          3.1980     1.4880    11.9920 ca         1 LIG      -0.110600
     27 C20          3.9390     2.5960    11.5220 ca         1 LIG      -0.129000
     28 C21          3.3240     3.6870    10.9180 ca         1 LIG      -0.103000
     29 C22          1.9510     3.6590    10.7530 ca         1 LIG      -0.195000
     30 C23          1.2060     2.5700    11.2290 ca         1 LIG       0.111100
     31 C24          1.8060     1.4600    11.8290 ca         1 LIG      -0.052300
     32 O3          -0.1640     2.6190    11.2010 oh         1 LIG      -0.496100
     33 C25          0.9350     0.3430    12.3340 c3         1 LIG      -0.059800
     34 S            7.7470    -0.2420    12.7580 ss         1 LIG      -0.145000
     35 C26          7.7040     1.2030    11.8200 ca         1 LIG      -0.000100
     36 C27          7.9680     1.0620    10.4640 ca         1 LIG      -0.140500
     37 C28          7.9720     2.2040     9.6860 ca         1 LIG      -0.112500
     38 C29          7.7140     3.4510    10.2640 ca         1 LIG      -0.145000
     39 C30          7.4430     3.5800    11.6300 ca         1 LIG      -0.112500
     40 C31          7.4360     2.4280    12.4120 ca         1 LIG      -0.140500
     41 H            1.6700    -4.1890    16.8540 hc         1 LIG       0.052700
     42 H1           3.6380    -5.5790    17.6860 hc         1 LIG       0.038700
     43 H2           3.2520    -7.6260    16.3550 hc         1 LIG       0.038200
     44 H3           1.8140    -6.8870    16.8330 hc         1 LIG       0.038200
     45 H4           3.1510    -6.5790    14.0260 hc         1 LIG       0.039200
     46 H5           1.7420    -7.4570    14.3430 hc         1 LIG       0.039200
     47 H6           0.9870    -5.2310    13.4850 hc         1 LIG       0.039700
     48 H7           0.4880    -5.3000    15.0960 hc         1 LIG       0.039700
     49 H8           1.7980    -3.0470    14.5640 hc         1 LIG       0.059700
     50 H9           3.1770    -3.8810    14.1590 hc         1 LIG       0.059700
     51 H10          5.8010    -4.0530    17.4140 h1         1 LIG       0.028700
     52 H11          5.4550    -6.2300    16.0490 hc         1 LIG       0.056200
     53 H12          4.7210    -5.3780    14.7800 hc         1 LIG       0.056200
     54 H13          2.9000    -2.0080    16.8120 h1         1 LIG       0.048700
     55 H14          3.6780    -3.0220    17.9160 h1         1 LIG       0.048700
     56 H15          7.7200    -4.9330    17.0750 hn         1 LIG       0.307500
     57 H16         10.8890    -3.2090    15.0640 hc         1 LIG       0.045811
     58 H17          9.1810    -2.6320    14.6840 hc         1 LIG       0.045811
     59 H18          9.7280    -2.4540    16.2780 hc         1 LIG       0.045811
     60 H19         10.3890    -5.4600    14.1140 hc         1 LIG       0.045811
     61 H20          8.8830    -6.4170    14.6210 hc         1 LIG       0.045811
     62 H21          8.6340    -5.0450    13.6810 hc         1 LIG       0.045811
     63 H22         11.1760    -5.1690    16.5810 hc         1 LIG       0.045811
     64 H23         10.0020    -4.5470    17.8870 hc         1 LIG       0.045811
     65 H24          9.7320    -6.0930    17.3110 hc         1 LIG       0.045811
     66 H25          5.1580    -1.4210    17.6040 h1         1 LIG       0.045200
     67 H26          6.4510    -1.6400    16.5530 h1         1 LIG       0.045200
     68 H27          3.7540    -0.6340    15.3720 h1         1 LIG       0.089700
     69 H28          5.5370    -1.3120    13.8130 h1         1 LIG       0.113700
     70 H29          5.9740     0.7720    16.5370 ho         1 LIG       0.397000
     71 H30          4.8790     1.6810    13.8670 hn         1 LIG       0.317500
     72 H31          6.9990     1.2720    14.5350 h1         1 LIG       0.100700
     73 H32          7.4900    -0.1990    15.1960 h1         1 LIG       0.100700
     74 H33          5.0360     2.6090    11.6300 ha         1 LIG       0.150000
     75 H34          3.9120     4.5550    10.5770 ha         1 LIG       0.138000
     76 H35          1.4520     4.5010    10.2440 ha         1 LIG       0.134000
     77 H36         -0.4380     3.3740    10.6940 ho         1 LIG       0.418000
     78 H37         -0.1720     0.3200    12.2040 hc         1 LIG       0.057700
     79 H38          1.3360    -0.6070    11.9100 hc         1 LIG       0.057700
     80 H39          1.1420     0.2280    13.4230 hc         1 LIG       0.057700
     81 H40          8.1680     0.0730    10.0180 ha         1 LIG       0.135000
     82 H41          8.1800     2.1200     8.6060 ha         1 LIG       0.131500
     83 H42          7.7240     4.3520     9.6280 ha         1 LIG       0.131000
     84 H43          7.2390     4.5660    12.0790 ha         1 LIG       0.131500
     85 H44          7.2190     2.4850    13.4920 ha         1 LIG       0.135000
@<TRIPOS>BOND
     1     1     2 1   
     2     1     6 1   
     3     1    10 1   
     4     1    41 1   
     5     2     3 1   
     6     2     9 1   
     7     2    42 1   
     8     3     4 1   
     9     3    43 1   
    10     3    44 1   
    11     4     5 1   
    12     4    45 1   
    13     4    46 1   
    14     5     6 1   
    15     5    47 1   
    16     5    48 1   
    17     6    49 1   
    18     6    50 1   
    19     7     8 1   
    20     7    10 1   
    21     7    18 1   
    22     8     9 1   
    23     8    11 1   
    24     8    51 1   
    25     9    52 1   
    26     9    53 1   
    27    10    54 1   
    28    10    55 1   
    29    11    12 1   
    30    11    17 2   
    31    12    13 1   
    32    12    56 1   
    33    13    14 1   
    34    13    15 1   
    35    13    16 1   
    36    14    57 1   
    37    14    58 1   
    38    14    59 1   
    39    15    60 1   
    40    15    61 1   
    41    15    62 1   
    42    16    63 1   
    43    16    64 1   
    44    16    65 1   
    45    18    19 1   
    46    18    66 1   
    47    18    67 1   
    48    19    20 1   
    49    19    21 1   
    50    19    68 1   
    51    20    22 1   
    52    20    23 1   
    53    20    69 1   
    54    21    70 1   
    55    22    24 1   
    56    22    71 1   
    57    23    34 1   
    58    23    72 1   
    59    23    73 1   
    60    24    25 2   
    61    24    26 1   
    62    26    27 ar  
    63    26    31 ar  
    64    27    28 ar  
    65    27    74 1   
    66    28    29 ar  
    67    28    75 1   
    68    29    30 ar  
    69    29    76 1   
    70    30    31 ar  
    71    30    32 1   
    72    31    33 1   
    73    32    77 1   
    74    33    78 1   
    75    33    79 1   
    76    33    80 1   
    77    34    35 1   
    78    35    36 ar  
    79    35    40 ar  
    80    36    37 ar  
    81    36    81 1   
    82    37    38 ar  
    83    37    82 1   
    84    38    39 ar  
    85    38    83 1   
    86    39    40 ar  
    87    39    84 1   
    88    40    85 1   
@<TRIPOS>SUBSTRUCTURE
     1 LIG         1 TEMP              0 ****  ****    0 ROOT
