@<TRIPOS>MOLECULE
MOL
   21    21     1     0     0
SMALL
bcc


@<TRIPOS>ATOM
      1 N1           0.4040    -0.4930     4.3510 na         1 MOL      -0.294900
      2 C1           1.4660    -1.2860     4.1950 cc         1 MOL       0.450400
      3 N2           2.0890    -0.9560     3.0510 n2         1 MOL      -0.431800
      4 N3           1.4230     0.0180     2.5080 na         1 MOL       0.150400
      5 C2           0.3710     0.3220     3.2930 cc         1 MOL      -0.010600
      6 C3           1.7520     0.6270     1.2560 c3         1 MOL       0.040300
      7 C4           1.0360    -0.1060     0.0940 c3         1 MOL      -0.103400
      8 C5           1.3390     0.5210    -1.2900 c3         1 MOL      -0.079400
      9 C6           0.6240    -0.2110    -2.4480 c3         1 MOL      -0.098100
     10 H1          -0.2270    -0.5080     5.0890 hn         1 MOL       0.372700
     11 H2           1.7560    -2.0260     4.8350 h5         1 MOL       0.134100
     12 H3          -0.3350     1.0420     3.1180 h5         1 MOL       0.272000
     13 H4           2.8350     0.5860     1.1040 h1         1 MOL       0.100200
     14 H5           1.4610     1.6820     1.2650 h1         1 MOL       0.100200
     15 H6           1.3540    -1.1530     0.0910 hc         1 MOL       0.072200
     16 H7          -0.0420    -0.0770     0.2710 hc         1 MOL       0.072200
     17 H8           2.4160     0.4930    -1.4740 hc         1 MOL       0.051700
     18 H9           1.0180     1.5670    -1.2900 hc         1 MOL       0.051700
     19 H10          0.8700     0.2700    -3.3980 hc         1 MOL       0.050033
     20 H11         -0.4590    -0.1750    -2.3110 hc         1 MOL       0.050033
     21 H12          0.9430    -1.2540    -2.4940 hc         1 MOL       0.050033
@<TRIPOS>BOND
     1     1     2 1   
     2     2     3 2   
     3     3     4 1   
     4     4     5 1   
     5     1     5 2   
     6     4     6 1   
     7     6     7 1   
     8     7     8 1   
     9     8     9 1   
    10     1    10 1   
    11     2    11 1   
    12     5    12 1   
    13     6    13 1   
    14     6    14 1   
    15     7    15 1   
    16     7    16 1   
    17     8    17 1   
    18     8    18 1   
    19     9    19 1   
    20     9    20 1   
    21     9    21 1   
@<TRIPOS>SUBSTRUCTURE
     1 MOL         1 TEMP              0 ****  ****    0 ROOT
