@<TRIPOS>MOLECULE

39 39 1
SMALL
USER_CHARGES
@<TRIPOS>ATOM
1	N1    -4.4376     4.2996    -8.0750	N.2	1	noname	0.0060
2	C1    -3.9311     4.9058    -7.0010	C.2	1	noname	0.1530
3	N2    -2.7153     4.3743    -6.7675	N.3	1	noname	0.0819
4	N3    -2.4636     3.4743    -7.6678	N.2	1	noname	-0.1831
5	C2    -3.5237     3.4147    -8.4871	C.2	1	noname	0.2206
6	C3    -1.8454     4.6946    -5.6821	C.3	1	noname	0.0053
7	C4    -2.1857     3.8125    -4.4552	C.3	1	noname	-0.0352
8	C5    -1.2890     4.1222    -3.2295	C.3	1	noname	-0.0517
9	C6    -1.6301     3.2333    -2.0038	C.3	1	noname	-0.0532
10	C7    -0.7254     3.5583    -0.7844	C.3	1	noname	-0.0533
11	C8    -1.0424     2.6840     0.4576	C.3	1	noname	-0.0533
12	C9    -0.1336     3.0123     1.6739	C.3	1	noname	-0.0533
13	C10    -0.4614     2.1297     2.9089	C.3	1	noname	-0.0535
14	C11     0.4374     2.4444     4.1331	C.3	1	noname	-0.0561
15	C12     0.1052     1.5625     5.3573	C.3	1	noname	-0.0654
16	H1    -4.3927     5.6356    -6.4525	H	1	noname	0.1473
17	H2    -3.6164     2.7899    -9.2878	H	1	noname	0.1520
18	H3    -0.8084     4.5187    -5.9848	H	1	noname	0.0492
19	H4    -1.9400     5.7539    -5.4254	H	1	noname	0.0492
20	H5    -2.0597     2.7624    -4.7349	H	1	noname	0.0283
21	H6    -3.2334     3.9689    -4.1808	H	1	noname	0.0283
22	H7    -1.4142     5.1733    -2.9547	H	1	noname	0.0267
23	H8    -0.2425     3.9652    -3.5053	H	1	noname	0.0267
24	H9    -2.6774     3.3890    -1.7272	H	1	noname	0.0266
25	H10    -1.5049     2.1806    -2.2756	H	1	noname	0.0266
26	H11     0.3196     3.4053    -1.0700	H	1	noname	0.0266
27	H12    -0.8551     4.6120    -0.5206	H	1	noname	0.0266
28	H13    -2.0870     2.8384     0.7422	H	1	noname	0.0266
29	H14    -0.9137     1.6310     0.1917	H	1	noname	0.0266
30	H15     0.9118     2.8591     1.3910	H	1	noname	0.0266
31	H16    -0.2607     4.0652     1.9416	H	1	noname	0.0266
32	H17    -1.5073     2.2839     3.1896	H	1	noname	0.0266
33	H18    -0.3343     1.0774     2.6387	H	1	noname	0.0266
34	H19     0.3129     3.4933     4.4164	H	1	noname	0.0264
35	H20     1.4859     2.2866     3.8654	H	1	noname	0.0264
36	H21     0.7654     1.8259     6.1861	H	1	noname	0.0230
37	H22    -0.9284     1.7183     5.6728	H	1	noname	0.0230
38	H23     0.2495     0.5066     5.1195	H	1	noname	0.0230
39	H24    -5.3051     4.4647    -8.4766	H	1	noname	0.2953
@<TRIPOS>BOND
1	1	2	2
2	2	3	1
3	3	4	1
4	4	5	2
5	1	5	1
6	3	6	1
7	6	7	1
8	7	8	1
9	8	9	1
10	9	10	1
11	10	11	1
12	11	12	1
13	12	13	1
14	13	14	1
15	14	15	1
16	2	16	1
17	5	17	1
18	6	18	1
19	6	19	1
20	7	20	1
21	7	21	1
22	8	22	1
23	8	23	1
24	9	24	1
25	9	25	1
26	10	26	1
27	10	27	1
28	11	28	1
29	11	29	1
30	12	30	1
31	12	31	1
32	13	32	1
33	13	33	1
34	14	34	1
35	14	35	1
36	15	36	1
37	15	37	1
38	15	38	1
39	1	39	1
@<TRIPOS>SUBSTRUCTURE
1	noname	1
