@<TRIPOS>MOLECULE
MOL
   39    39     1     0     0
SMALL
bcc


@<TRIPOS>ATOM
      1 N1          -4.4380     4.3000    -8.0750 na         1 MOL      -0.294900
      2 C1          -3.9310     4.9060    -7.0010 cc         1 MOL      -0.010600
      3 N2          -2.7150     4.3740    -6.7680 na         1 MOL       0.150400
      4 N3          -2.4640     3.4740    -7.6680 n2         1 MOL      -0.431800
      5 C2          -3.5240     3.4150    -8.4870 cc         1 MOL       0.450400
      6 C3          -1.8450     4.6950    -5.6820 c3         1 MOL       0.040300
      7 C4          -2.1860     3.8120    -4.4550 c3         1 MOL      -0.102400
      8 C5          -1.2890     4.1220    -3.2290 c3         1 MOL      -0.081400
      9 C6          -1.6300     3.2330    -2.0040 c3         1 MOL      -0.078400
     10 C7          -0.7250     3.5580    -0.7840 c3         1 MOL      -0.079400
     11 C8          -1.0420     2.6840     0.4580 c3         1 MOL      -0.079400
     12 C9          -0.1340     3.0120     1.6740 c3         1 MOL      -0.079400
     13 C10         -0.4610     2.1300     2.9090 c3         1 MOL      -0.079400
     14 C11          0.4370     2.4440     4.1330 c3         1 MOL      -0.079400
     15 C12          0.1050     1.5620     5.3570 c3         1 MOL      -0.094100
     16 H1          -4.3930     5.6360    -6.4520 h5         1 MOL       0.272000
     17 H2          -3.6160     2.7900    -9.2880 h5         1 MOL       0.134100
     18 H3          -0.8080     4.5190    -5.9850 h1         1 MOL       0.100700
     19 H4          -1.9400     5.7540    -5.4250 h1         1 MOL       0.100700
     20 H5          -2.0600     2.7620    -4.7350 hc         1 MOL       0.071700
     21 H6          -3.2330     3.9690    -4.1810 hc         1 MOL       0.071700
     22 H7          -1.4140     5.1730    -2.9550 hc         1 MOL       0.052200
     23 H8          -0.2420     3.9650    -3.5050 hc         1 MOL       0.052200
     24 H9          -2.6770     3.3890    -1.7270 hc         1 MOL       0.047700
     25 H10         -1.5050     2.1810    -2.2760 hc         1 MOL       0.047700
     26 H11          0.3200     3.4050    -1.0700 hc         1 MOL       0.044700
     27 H12         -0.8550     4.6120    -0.5210 hc         1 MOL       0.044700
     28 H13         -2.0870     2.8380     0.7420 hc         1 MOL       0.042700
     29 H14         -0.9140     1.6310     0.1920 hc         1 MOL       0.042700
     30 H15          0.9120     2.8590     1.3910 hc         1 MOL       0.042200
     31 H16         -0.2610     4.0650     1.9420 hc         1 MOL       0.042200
     32 H17         -1.5070     2.2840     3.1900 hc         1 MOL       0.041200
     33 H18         -0.3340     1.0770     2.6390 hc         1 MOL       0.041200
     34 H19          0.3130     3.4930     4.4160 hc         1 MOL       0.039700
     35 H20          1.4860     2.2870     3.8650 hc         1 MOL       0.039700
     36 H21          0.7650     1.8260     6.1860 hc         1 MOL       0.035700
     37 H22         -0.9280     1.7180     5.6730 hc         1 MOL       0.035700
     38 H23          0.2490     0.5070     5.1200 hc         1 MOL       0.035700
     39 H24         -5.3050     4.4650    -8.4770 hn         1 MOL       0.372700
@<TRIPOS>BOND
     1     1     2 2   
     2     2     3 1   
     3     3     4 1   
     4     4     5 2   
     5     1     5 1   
     6     3     6 1   
     7     6     7 1   
     8     7     8 1   
     9     8     9 1   
    10     9    10 1   
    11    10    11 1   
    12    11    12 1   
    13    12    13 1   
    14    13    14 1   
    15    14    15 1   
    16     2    16 1   
    17     5    17 1   
    18     6    18 1   
    19     6    19 1   
    20     7    20 1   
    21     7    21 1   
    22     8    22 1   
    23     8    23 1   
    24     9    24 1   
    25     9    25 1   
    26    10    26 1   
    27    10    27 1   
    28    11    28 1   
    29    11    29 1   
    30    12    30 1   
    31    12    31 1   
    32    13    32 1   
    33    13    33 1   
    34    14    34 1   
    35    14    35 1   
    36    15    36 1   
    37    15    37 1   
    38    15    38 1   
    39     1    39 1   
@<TRIPOS>SUBSTRUCTURE
     1 MOL         1 TEMP              0 ****  ****    0 ROOT
